Version 4
SHEET 1 880 680
WIRE 32 144 16 144
WIRE 112 160 112 144
WIRE 16 176 16 144
WIRE 16 208 16 176
WIRE 112 240 112 224
FLAG 16 288 0
FLAG 112 240 0
FLAG 112 144 Vout
FLAG 16 176 Vin
SYMBOL voltage 16 192 R0
WINDOW 123 0 0 Left 0
WINDOW 39 0 0 Left 0
SYMATTR InstName V1
SYMATTR Value SINE(0 5 7)
SYMBOL cap 96 160 R0
SYMATTR InstName C1
SYMATTR Value 470nC
SYMBOL res 128 128 R90
WINDOW 0 0 56 VBottom 2
WINDOW 3 32 56 VTop 2
SYMATTR InstName R1
SYMATTR Value 1000R
TEXT -24 312 Left 2 !.tran 1000m
